CM 2el Yagi as simple feed DIPROD.NEC
CM leave out freq, do it in wavelengths
CM pointed in pos Z direction
CM in free space
CE
GW 1 21 0 -.214 0 0 .214 0  .01
GW 2 21 0 -.25 -.24 0 .25 -.24  .01
GS 0 0 1
GE 0
EK
EX 0 1 11 0 1 0
RP 0 361 361 1001 0. 0. 1. 1. 10000.
EN

