CM Example 1: Half-wavelength dipole 
CE 
GW 1 9 0 -0.02 0 0 0.02 0 .001 
GE
EX 0 1 5 0 1 0 
FR 0 1 0 0 200 0
RP 0 361 361 1001 0. 0. 1. 1. 10000.
XQ
EN


