CM SQR_1.NEC 
CM 3-tower pattern 
CE 
GW, 101, 20, 0., 0., 0., 0., 0., 49.9675, 0.1456 
GW, 201, 20, 105.997, 105.997, 0., 105.997, 105.997, 124.9188, 0.1456 
GW, 301, 20, 105.997, -105.997, 0., 105.997, -105.997, 124.9188, 0.1456 
GE, 1 
GN, 1 
FR, 0, 1, 0, 0, 1.5, 0.  
EX, 0, 101, 1, 00, 616.21, 436.76 
XQ
EX, 0, 201, 1, 00, -218.4, 142.29 
XQ
EX, 0, 301, 1, 00, -218.4, 142.29
XQ
RP  0  1  361  1001  90.  0.  1.  1.   
EN

