CM ND.NEC - nondirectional operation of 8-tower array 
CM Single Wire Tower  4’ face  405’ AGL  20 segments 
CM Perfectly conducting ground
CM Exciting tower 7 with others grounded thru 15uH
CE
GW 101  20  0.  0.  0.  0.  0.  123.44  0.582
GW 201  20  61.043  24.663  0.  61.043  24.663  123.44  0.582
GW 301  20  122.086  49.326  0.  122.086  49.326  123.44  0.582
GW 401  20  183.129  73.989  0.  183.129  73.989  123.44  0.582
GW 501  20  -3.135  -59.811  0.  -3.135  -59.811  123.44  0.582
GW 601  20  57.867  -35.073  0.  57.867  -35.073  123.44  0.582
GW 701  20  119.024  -10.455  0.  119.024  -10.455  123.44  0.582
GW 801  20  179.881  14.22  0.  179.881  14.22  123.44  0.582
GE 1
GN 1
FR 0  1  0  0  1.39  0.
LD 0  101  1  1  0.  15.E-6  0.
LD 0  201  1  1  0.  15.E-6  0.
LD 0  301  1  1  0.  15.E-6  0.
LD 0  401  1  1  0.  15.E-6  0.
LD 0  501  1  1  0.  15.E-6  0.
LD 0  601  1  1  0.  15.E-6  0.
LD 0  801  1  1  0.  15.E-6  0.
EX 0  701  1  00  1279.46  0.
RP  0  1  361  1001  90.  0.  1.  1.  1000.  0.
EN

